Version 4
SHEET 1 2972 680
WIRE 160 -240 -144 -240
WIRE -144 -192 -144 -240
WIRE 160 -112 160 -240
WIRE -144 -80 -144 -112
WIRE 160 0 160 -32
WIRE 160 32 160 0
WIRE 224 32 160 32
WIRE 160 64 160 32
WIRE 240 112 160 112
WIRE 272 112 240 112
WIRE 48 144 -336 144
WIRE 112 144 48 144
WIRE -336 192 -336 144
WIRE 160 192 160 160
WIRE 272 192 272 112
WIRE 272 192 160 192
WIRE 160 240 160 192
WIRE -336 320 -336 272
WIRE 160 320 160 240
WIRE 160 320 -336 320
WIRE -336 336 -336 320
FLAG -144 -80 0
FLAG -336 336 0
FLAG 224 32 Vout
IOPIN 224 32 Out
FLAG -336 144 Vin
FLAG 160 -240 Vdd
FLAG 160 240 source
FLAG 160 0 drain
FLAG 48 144 gate
FLAG 240 112 bulk
SYMBOL voltage -144 -208 R0
WINDOW 123 0 0 Left 2
WINDOW 39 0 0 Left 2
SYMATTR InstName V1
SYMATTR Value 4
SYMBOL voltage -336 176 R0
WINDOW 123 0 0 Left 2
WINDOW 39 0 0 Left 2
SYMATTR InstName V2
SYMATTR Value 0
SYMBOL res 144 -128 R0
SYMATTR InstName R1
SYMATTR Value 1k
SYMBOL nmos4 112 64 R0
SYMATTR InstName M2
SYMATTR Value2 l=0.25u w=40u
TEXT -480 -312 Left 2 !.inc Generic_025_SPICE_Models_Level2.lib
TEXT -480 -280 Left 2 !.dc V2 0 5 0.01
