Version 4
SHEET 1 2972 680
WIRE -224 -208 -224 -256
WIRE 48 -128 48 -256
WIRE 48 16 48 -48
WIRE 112 16 48 16
WIRE 48 48 48 16
WIRE 96 96 48 96
WIRE 96 112 96 96
WIRE 0 128 -144 128
WIRE -144 208 -144 128
WIRE -144 208 -192 208
WIRE -144 256 -144 208
FLAG 48 144 0
FLAG 96 112 0
FLAG -224 -128 0
FLAG -144 336 0
FLAG -192 208 Vin
IOPIN -192 208 In
FLAG 112 16 Vout1
IOPIN 112 16 Out
SYMBOL nmos4 0 48 R0
SYMATTR InstName M1
SYMATTR Value NMOSx
SYMATTR Value2 l=0.25u w=40u
SYMBOL voltage -224 -224 R0
WINDOW 123 0 0 Left 2
WINDOW 39 0 0 Left 2
SYMATTR InstName V1
SYMATTR Value 2.5
SYMBOL voltage -144 240 R0
WINDOW 123 0 0 Left 2
WINDOW 39 0 0 Left 2
SYMATTR InstName V2
SYMATTR Value PULSE(0 5 0 0.1 0.1 0.4 1)
SYMBOL res 32 -144 R0
SYMATTR InstName R1
SYMATTR Value 10K
TEXT -296 416 Left 2 !.inc Generic_025_SPICE_Models_Level2.lib
TEXT -296 368 Left 2 !;tran 0 3 0
TEXT -296 392 Left 2 !.dc V1 2.5 10 0.01
