Version 4
SHEET 1 2972 680
WIRE 160 -240 -144 -240
WIRE -144 -192 -144 -240
WIRE 160 -112 160 -240
WIRE -144 -80 -144 -112
WIRE 160 32 160 -32
WIRE 224 32 160 32
WIRE 160 64 160 32
WIRE 272 112 160 112
WIRE 112 144 -144 144
WIRE -144 192 -144 144
WIRE 160 192 160 160
WIRE 272 192 272 112
WIRE 272 192 160 192
WIRE -144 320 -144 272
WIRE 160 320 160 192
WIRE 160 320 -144 320
WIRE -144 336 -144 320
FLAG -144 -80 0
FLAG -144 336 0
FLAG 224 32 Vout
IOPIN 224 32 Out
FLAG -144 144 Vin
FLAG 160 -240 Vdd
SYMBOL voltage -144 -208 R0
WINDOW 123 0 0 Left 2
WINDOW 39 0 0 Left 2
SYMATTR InstName V1
SYMATTR Value {v_dd}
SYMBOL voltage -144 176 R0
WINDOW 123 0 0 Left 2
WINDOW 39 0 0 Left 2
SYMATTR InstName V2
SYMATTR Value PULSE(0 0.5 0 0.1n 0.1n 1m 2m)
SYMBOL res 144 -128 R0
SYMATTR InstName R1
SYMATTR Value 10K
SYMBOL nmos4 112 64 R0
SYMATTR InstName M2
SYMATTR Value2 l=0.25u w=40u
TEXT -336 448 Left 2 !.inc Generic_025_SPICE_Models_Level2.lib
TEXT -336 416 Left 2 !;tran 10m
TEXT 280 392 Left 2 !.op
TEXT 280 440 Left 2 !.step param v_dd 5 500 1
