Version 4
SHEET 1 2972 680
WIRE 160 -240 -144 -240
WIRE 528 -240 160 -240
WIRE -144 -192 -144 -240
WIRE 160 -112 160 -240
WIRE 528 -112 528 -240
WIRE -144 -80 -144 -112
WIRE 160 0 160 -32
WIRE 528 0 528 -32
WIRE 160 16 160 0
WIRE 352 16 160 16
WIRE 528 32 528 0
WIRE 592 32 528 32
WIRE 160 64 160 16
WIRE 528 64 528 32
WIRE 240 112 160 112
WIRE 272 112 240 112
WIRE 608 112 528 112
WIRE 640 112 608 112
WIRE 48 144 -336 144
WIRE 112 144 48 144
WIRE 352 144 352 16
WIRE 416 144 352 144
WIRE 480 144 416 144
WIRE -336 192 -336 144
WIRE 160 192 160 160
WIRE 272 192 272 112
WIRE 272 192 160 192
WIRE 528 192 528 160
WIRE 640 192 640 112
WIRE 640 192 528 192
WIRE 160 240 160 192
WIRE 528 240 528 192
WIRE -336 320 -336 272
WIRE 160 320 160 240
WIRE 160 320 -336 320
WIRE 528 320 528 240
WIRE 528 320 160 320
WIRE -336 336 -336 320
FLAG -144 -80 0
FLAG -336 336 0
FLAG -336 144 Vin
FLAG 160 -240 Vdd
FLAG 160 240 source
FLAG 160 0 drain
FLAG 48 144 gate
FLAG 240 112 bulk
FLAG 592 32 Vout2
IOPIN 592 32 Out
FLAG 528 -240 Vdd
FLAG 528 240 source
FLAG 528 0 drain
FLAG 416 144 gate
FLAG 608 112 bulk
SYMBOL voltage -144 -208 R0
WINDOW 123 0 0 Left 2
WINDOW 39 0 0 Left 2
SYMATTR InstName V1
SYMATTR Value 4
SYMBOL voltage -336 176 R0
WINDOW 123 0 0 Left 2
WINDOW 39 0 0 Left 2
SYMATTR InstName V2
SYMATTR Value 0
SYMBOL res 144 -128 R0
SYMATTR InstName R1
SYMATTR Value 1k
SYMBOL nmos4 112 64 R0
SYMATTR InstName M2
SYMATTR Value2 l=0.25u w=40u
SYMBOL res 512 -128 R0
SYMATTR InstName R2
SYMATTR Value 1k
SYMBOL nmos4 480 64 R0
SYMATTR InstName M1
SYMATTR Value2 l=0.25u w=40u
TEXT -480 -312 Left 2 !.inc Generic_025_SPICE_Models_Level2.lib
TEXT -480 -280 Left 2 !.dc V2 0 5 0.01
