Version 4
SHEET 1 880 680
WIRE 384 32 128 32
WIRE 384 96 384 32
WIRE 128 112 128 32
WIRE 128 240 128 192
WIRE 320 240 128 240
WIRE 384 240 384 176
WIRE 384 240 320 240
WIRE 320 272 320 240
FLAG 320 272 0
FLAG 384 32 positivo
SYMBOL res 112 96 R0
SYMATTR InstName Rcarga
SYMATTR Value {a}
SYMBOL voltage 384 80 R0
WINDOW 123 0 0 Left 0
WINDOW 39 0 0 Left 0
SYMATTR InstName Fonte
SYMATTR Value 10
TEXT 110 296 Left 2 !.op
TEXT 112 328 Left 2 !.step param a 1k 10k 10
